PSSE/ieee39.raw
0, 100, 33, 0, 0, 60  / 20-Mar-2023 09:38:40 - MATPOWER 7.1


     1, 'BUS 1       ',       345, 1,    2,    1, 1,   1.0393836,  -13.536602, 1.06, 0.94, 1.06, 0.94
     2, 'BUS 2       ',       345, 1,    2,    1, 1,   1.0484941,  -9.7852666, 1.06, 0.94, 1.06, 0.94
     3, 'BUS 3       ',       345, 1,    2,    1, 1,   1.0307077,  -12.276384, 1.06, 0.94, 1.06, 0.94
     4, 'BUS 4       ',       345, 1,    1,    1, 1,     1.00446,  -12.626734, 1.06, 0.94, 1.06, 0.94
     5, 'BUS 5       ',       345, 1,    1,    1, 1,   1.0060063,  -11.192339, 1.06, 0.94, 1.06, 0.94
     6, 'BUS 6       ',       345, 1,    1,    1, 1,   1.0082256,   -10.40833, 1.06, 0.94, 1.06, 0.94
     7, 'BUS 7       ',       345, 1,    1,    1, 1,  0.99839728,  -12.755626, 1.06, 0.94, 1.06, 0.94
     8, 'BUS 8       ',       345, 1,    1,    1, 1,  0.99787232,  -13.335844, 1.06, 0.94, 1.06, 0.94
     9, 'BUS 9       ',       345, 1,    1,    1, 1,    1.038332,  -14.178442, 1.06, 0.94, 1.06, 0.94
    10, 'BUS 10      ',       345, 1,    1,    1, 1,   1.0178431,   -8.170875, 1.06, 0.94, 1.06, 0.94
    11, 'BUS 11      ',       345, 1,    1,    1, 1,   1.0133858,  -8.9369663, 1.06, 0.94, 1.06, 0.94
    12, 'BUS 12      ',       345, 1,    1,    1, 1,    1.000815,  -8.9988236, 1.06, 0.94, 1.06, 0.94
    13, 'BUS 13      ',       345, 1,    1,    1, 1,    1.014923,  -8.9299272, 1.06, 0.94, 1.06, 0.94
    14, 'BUS 14      ',       345, 1,    1,    1, 1,    1.012319,  -10.715295, 1.06, 0.94, 1.06, 0.94
    15, 'BUS 15      ',       345, 1,    3,    1, 1,   1.0161854,  -11.345399, 1.06, 0.94, 1.06, 0.94
    16, 'BUS 16      ',       345, 1,    3,    1, 1,   1.0325203,  -10.033348, 1.06, 0.94, 1.06, 0.94
    17, 'BUS 17      ',       345, 1,    2,    1, 1,   1.0342365,  -11.116436, 1.06, 0.94, 1.06, 0.94
    18, 'BUS 18      ',       345, 1,    2,    1, 1,   1.0315726,  -11.986168, 1.06, 0.94, 1.06, 0.94
    19, 'BUS 19      ',       345, 1,    3,    1, 1,   1.0501068,  -5.4100729, 1.06, 0.94, 1.06, 0.94
    20, 'BUS 20      ',       345, 1,    3,    1, 1,  0.99101054,  -6.8211783, 1.06, 0.94, 1.06, 0.94
    21, 'BUS 21      ',       345, 1,    3,    1, 1,   1.0323192,  -7.6287461, 1.06, 0.94, 1.06, 0.94
    22, 'BUS 22      ',       345, 1,    3,    1, 1,   1.0501427,  -3.1831199, 1.06, 0.94, 1.06, 0.94
    23, 'BUS 23      ',       345, 1,    3,    1, 1,   1.0451451,  -3.3812763, 1.06, 0.94, 1.06, 0.94
    24, 'BUS 24      ',       345, 1,    3,    1, 1,    1.038001,  -9.9137585, 1.06, 0.94, 1.06, 0.94
    25, 'BUS 25      ',       345, 1,    2,    1, 1,   1.0576827,  -8.3692354, 1.06, 0.94, 1.06, 0.94
    26, 'BUS 26      ',       345, 1,    2,    1, 1,   1.0525613,  -9.4387696, 1.06, 0.94, 1.06, 0.94
    27, 'BUS 27      ',       345, 1,    2,    1, 1,   1.0383449,  -11.362152, 1.06, 0.94, 1.06, 0.94
    28, 'BUS 28      ',       345, 1,    3,    1, 1,   1.0503737,  -5.9283592, 1.06, 0.94, 1.06, 0.94
    29, 'BUS 29      ',       345, 1,    3,    1, 1,   1.0501149,  -3.1698741, 1.06, 0.94, 1.06, 0.94
    30, 'BUS 30      ',       345, 2,    2,    1, 1,      1.0499,  -7.3704746, 1.06, 0.94, 1.06, 0.94
    31, 'BUS 31      ',       345, 3,    1,    1, 1,       0.982,           0, 1.06, 0.94, 1.06, 0.94
    32, 'BUS 32      ',       345, 2,    1,    1, 1,      0.9841,  -0.1884374, 1.06, 0.94, 1.06, 0.94
    33, 'BUS 33      ',       345, 2,    3,    1, 1,      0.9972, -0.19317445, 1.06, 0.94, 1.06, 0.94
    34, 'BUS 34      ',       345, 2,    3,    1, 1,      1.0123,   -1.631119, 1.06, 0.94, 1.06, 0.94
    35, 'BUS 35      ',       345, 2,    3,    1, 1,      1.0494,   1.7765069, 1.06, 0.94, 1.06, 0.94
    36, 'BUS 36      ',       345, 2,    3,    1, 1,      1.0636,   4.4684374, 1.06, 0.94, 1.06, 0.94
    37, 'BUS 37      ',       345, 2,    2,    1, 1,      1.0275,  -1.5828988, 1.06, 0.94, 1.06, 0.94
    38, 'BUS 38      ',       345, 2,    3,    1, 1,      1.0265,   3.8928177, 1.06, 0.94, 1.06, 0.94
    39, 'BUS 39      ',       345, 2,    1,    1, 1,        1.03,  -14.535256, 1.06, 0.94, 1.06, 0.94
0 / END OF BUS DATA, BEGIN LOAD DATA
     1,  1, 1,    2,    1,      97.6,      44.2, 0, 0, 0, 0, 1, 1, 0
     3,  1, 1,    2,    1,       322,       2.4, 0, 0, 0, 0, 1, 1, 0
     4,  1, 1,    1,    1,       500,       184, 0, 0, 0, 0, 1, 1, 0
     7,  1, 1,    1,    1,     233.8,        84, 0, 0, 0, 0, 1, 1, 0
     8,  1, 1,    1,    1,       522,     176.6, 0, 0, 0, 0, 1, 1, 0
     9,  1, 1,    1,    1,       6.5,     -66.6, 0, 0, 0, 0, 1, 1, 0
    12,  1, 1,    1,    1,      8.53,        88, 0, 0, 0, 0, 1, 1, 0
    15,  1, 1,    3,    1,       320,       153, 0, 0, 0, 0, 1, 1, 0
    16,  1, 1,    3,    1,       329,      32.3, 0, 0, 0, 0, 1, 1, 0
    18,  1, 1,    2,    1,       158,        30, 0, 0, 0, 0, 1, 1, 0
    20,  1, 1,    3,    1,       680,       103, 0, 0, 0, 0, 1, 1, 0
    21,  1, 1,    3,    1,       274,       115, 0, 0, 0, 0, 1, 1, 0
    23,  1, 1,    3,    1,     247.5,      84.6, 0, 0, 0, 0, 1, 1, 0
    24,  1, 1,    3,    1,     308.6,     -92.2, 0, 0, 0, 0, 1, 1, 0
    25,  1, 1,    2,    1,       224,      47.2, 0, 0, 0, 0, 1, 1, 0
    26,  1, 1,    2,    1,       139,        17, 0, 0, 0, 0, 1, 1, 0
    27,  1, 1,    2,    1,       281,      75.5, 0, 0, 0, 0, 1, 1, 0
    28,  1, 1,    3,    1,       206,      27.6, 0, 0, 0, 0, 1, 1, 0
    29,  1, 1,    3,    1,     283.5,      26.9, 0, 0, 0, 0, 1, 1, 0
    31,  1, 1,    1,    1,       9.2,       4.6, 0, 0, 0, 0, 1, 1, 0
    39,  1, 1,    1,    1,      1104,       250, 0, 0, 0, 0, 1, 1, 0
0 / END OF LOAD DATA, BEGIN FIXED SHUNT DATA
0 / END OF FIXED SHUNT DATA, BEGIN GENERATOR DATA
    30,  1,       250,   161.762,       400,       140,   1.0499, 0,     100, 0, 1, 0, 0, 1, 1, 100,      1040,         0, 1, 1, 0, 1, 0, 1, 0, 1, 0, 1
    31,  1,   677.871,   221.574,       300,      -100,    0.982, 0,     100, 0, 1, 0, 0, 1, 1, 100,       646,         0, 1, 1, 0, 1, 0, 1, 0, 1, 0, 1
    32,  1,       650,   206.965,       300,       150,   0.9841, 0,     100, 0, 1, 0, 0, 1, 1, 100,       725,         0, 1, 1, 0, 1, 0, 1, 0, 1, 0, 1
    33,  1,       632,   108.293,       250,         0,   0.9972, 0,     100, 0, 1, 0, 0, 1, 1, 100,       652,         0, 1, 1, 0, 1, 0, 1, 0, 1, 0, 1
    34,  1,       508,   166.688,       167,         0,   1.0123, 0,     100, 0, 1, 0, 0, 1, 1, 100,       508,         0, 1, 1, 0, 1, 0, 1, 0, 1, 0, 1
    35,  1,       650,   210.661,       300,      -100,   1.0494, 0,     100, 0, 1, 0, 0, 1, 1, 100,       687,         0, 1, 1, 0, 1, 0, 1, 0, 1, 0, 1
    36,  1,       560,   100.165,       240,         0,   1.0636, 0,     100, 0, 1, 0, 0, 1, 1, 100,       580,         0, 1, 1, 0, 1, 0, 1, 0, 1, 0, 1
    37,  1,       540,  -1.36945,       250,         0,   1.0275, 0,     100, 0, 1, 0, 0, 1, 1, 100,       564,         0, 1, 1, 0, 1, 0, 1, 0, 1, 0, 1
    38,  1,       830,   21.7327,       300,      -150,   1.0265, 0,     100, 0, 1, 0, 0, 1, 1, 100,       865,         0, 1, 1, 0, 1, 0, 1, 0, 1, 0, 1
    39,  1,      1000,   78.4674,       300,      -100,     1.03, 0,     100, 0, 1, 0, 0, 1, 1, 100,      1100,         0, 1, 1, 0, 1, 0, 1, 0, 1, 0, 1
0 / END OF GENERATOR DATA, BEGIN BRANCH DATA
     1,      2, 1,   0.0035,   0.0411,   0.6987,     600,     600,     600, 0, 0, 0, 0, 1, 1, 0, 1, 1, 0, 1, 0, 1, 0, 1
     1,     39, 1,    0.001,    0.025,     0.75,    1000,    1000,    1000, 0, 0, 0, 0, 1, 1, 0, 1, 1, 0, 1, 0, 1, 0, 1
     2,      3, 1,   0.0013,   0.0151,   0.2572,     500,     500,     500, 0, 0, 0, 0, 1, 1, 0, 1, 1, 0, 1, 0, 1, 0, 1
     2,     25, 1,    0.007,   0.0086,    0.146,     500,     500,     500, 0, 0, 0, 0, 1, 1, 0, 1, 1, 0, 1, 0, 1, 0, 1
     3,      4, 1,   0.0013,   0.0213,   0.2214,     500,     500,     500, 0, 0, 0, 0, 1, 1, 0, 1, 1, 0, 1, 0, 1, 0, 1
     3,     18, 1,   0.0011,   0.0133,   0.2138,     500,     500,     500, 0, 0, 0, 0, 1, 1, 0, 1, 1, 0, 1, 0, 1, 0, 1
     4,      5, 1,   0.0008,   0.0128,   0.1342,     600,     600,     600, 0, 0, 0, 0, 1, 1, 0, 1, 1, 0, 1, 0, 1, 0, 1
     4,     14, 1,   0.0008,   0.0129,   0.1382,     500,     500,     500, 0, 0, 0, 0, 1, 1, 0, 1, 1, 0, 1, 0, 1, 0, 1
     5,      6, 1,   0.0002,   0.0026,   0.0434,    1200,    1200,    1200, 0, 0, 0, 0, 1, 1, 0, 1, 1, 0, 1, 0, 1, 0, 1
     5,      8, 1,   0.0008,   0.0112,   0.1476,     900,     900,     900, 0, 0, 0, 0, 1, 1, 0, 1, 1, 0, 1, 0, 1, 0, 1
     6,      7, 1,   0.0006,   0.0092,    0.113,     900,     900,     900, 0, 0, 0, 0, 1, 1, 0, 1, 1, 0, 1, 0, 1, 0, 1
     6,     11, 1,   0.0007,   0.0082,   0.1389,     480,     480,     480, 0, 0, 0, 0, 1, 1, 0, 1, 1, 0, 1, 0, 1, 0, 1
     7,      8, 1,   0.0004,   0.0046,    0.078,     900,     900,     900, 0, 0, 0, 0, 1, 1, 0, 1, 1, 0, 1, 0, 1, 0, 1
     8,      9, 1,   0.0023,   0.0363,   0.3804,     900,     900,     900, 0, 0, 0, 0, 1, 1, 0, 1, 1, 0, 1, 0, 1, 0, 1
     9,     39, 1,    0.001,    0.025,      1.2,     900,     900,     900, 0, 0, 0, 0, 1, 1, 0, 1, 1, 0, 1, 0, 1, 0, 1
    10,     11, 1,   0.0004,   0.0043,   0.0729,     600,     600,     600, 0, 0, 0, 0, 1, 1, 0, 1, 1, 0, 1, 0, 1, 0, 1
    10,     13, 1,   0.0004,   0.0043,   0.0729,     600,     600,     600, 0, 0, 0, 0, 1, 1, 0, 1, 1, 0, 1, 0, 1, 0, 1
    13,     14, 1,   0.0009,   0.0101,   0.1723,     600,     600,     600, 0, 0, 0, 0, 1, 1, 0, 1, 1, 0, 1, 0, 1, 0, 1
    14,     15, 1,   0.0018,   0.0217,    0.366,     600,     600,     600, 0, 0, 0, 0, 1, 1, 0, 1, 1, 0, 1, 0, 1, 0, 1
    15,     16, 1,   0.0009,   0.0094,    0.171,     600,     600,     600, 0, 0, 0, 0, 1, 1, 0, 1, 1, 0, 1, 0, 1, 0, 1
    16,     17, 1,   0.0007,   0.0089,   0.1342,     600,     600,     600, 0, 0, 0, 0, 1, 1, 0, 1, 1, 0, 1, 0, 1, 0, 1
    16,     19, 1,   0.0016,   0.0195,    0.304,     600,     600,    2500, 0, 0, 0, 0, 1, 1, 0, 1, 1, 0, 1, 0, 1, 0, 1
    16,     21, 1,   0.0008,   0.0135,   0.2548,     600,     600,     600, 0, 0, 0, 0, 1, 1, 0, 1, 1, 0, 1, 0, 1, 0, 1
    16,     24, 1,   0.0003,   0.0059,    0.068,     600,     600,     600, 0, 0, 0, 0, 1, 1, 0, 1, 1, 0, 1, 0, 1, 0, 1
    17,     18, 1,   0.0007,   0.0082,   0.1319,     600,     600,     600, 0, 0, 0, 0, 1, 1, 0, 1, 1, 0, 1, 0, 1, 0, 1
    17,     27, 1,   0.0013,   0.0173,   0.3216,     600,     600,     600, 0, 0, 0, 0, 1, 1, 0, 1, 1, 0, 1, 0, 1, 0, 1
    21,     22, 1,   0.0008,    0.014,   0.2565,     900,     900,     900, 0, 0, 0, 0, 1, 1, 0, 1, 1, 0, 1, 0, 1, 0, 1
    22,     23, 1,   0.0006,   0.0096,   0.1846,     600,     600,     600, 0, 0, 0, 0, 1, 1, 0, 1, 1, 0, 1, 0, 1, 0, 1
    23,     24, 1,   0.0022,    0.035,    0.361,     600,     600,     600, 0, 0, 0, 0, 1, 1, 0, 1, 1, 0, 1, 0, 1, 0, 1
    25,     26, 1,   0.0032,   0.0323,    0.531,     600,     600,     600, 0, 0, 0, 0, 1, 1, 0, 1, 1, 0, 1, 0, 1, 0, 1
    26,     27, 1,   0.0014,   0.0147,   0.2396,     600,     600,     600, 0, 0, 0, 0, 1, 1, 0, 1, 1, 0, 1, 0, 1, 0, 1
    26,     28, 1,   0.0043,   0.0474,   0.7802,     600,     600,     600, 0, 0, 0, 0, 1, 1, 0, 1, 1, 0, 1, 0, 1, 0, 1
    26,     29, 1,   0.0057,   0.0625,    1.029,     600,     600,     600, 0, 0, 0, 0, 1, 1, 0, 1, 1, 0, 1, 0, 1, 0, 1
    28,     29, 1,   0.0014,   0.0151,    0.249,     600,     600,     600, 0, 0, 0, 0, 1, 1, 0, 1, 1, 0, 1, 0, 1, 0, 1
0 / END OF BRANCH DATA, BEGIN TRANSFORMER DATA
     2,     30, 0, 1, 1, 1, 1, 0, 0, 2, '            ', 1, 1, 1, 0, 1, 0, 1, 0, 1, '            '
0, 0.0181, 100
1.025, 0,     0,     900,     900,    2500, 0, 0, 1.1, 0.9, 1.1, 0.9, 33, 0, 0, 0, 0
    1, 0
     6,     31, 0, 1, 1, 1, 1, 0, 0, 2, '            ', 1, 1, 1, 0, 1, 0, 1, 0, 1, '            '
0, 0.025, 100
 1.07, 0,     0,    1800,    1800,    1800, 0, 0, 1.1, 0.9, 1.1, 0.9, 33, 0, 0, 0, 0
    1, 0
    10,     32, 0, 1, 1, 1, 1, 0, 0, 2, '            ', 1, 1, 1, 0, 1, 0, 1, 0, 1, '            '
0, 0.02, 100
 1.07, 0,     0,     900,     900,    2500, 0, 0, 1.1, 0.9, 1.1, 0.9, 33, 0, 0, 0, 0
    1, 0
    12,     11, 0, 1, 1, 1, 1, 0, 0, 2, '            ', 1, 1, 1, 0, 1, 0, 1, 0, 1, '            '
0.0016, 0.0435, 100
1.006, 0,     0,     500,     500,     500, 0, 0, 1.1, 0.9, 1.1, 0.9, 33, 0, 0, 0, 0
    1, 0
    12,     13, 0, 1, 1, 1, 1, 0, 0, 2, '            ', 1, 1, 1, 0, 1, 0, 1, 0, 1, '            '
0.0016, 0.0435, 100
1.006, 0,     0,     500,     500,     500, 0, 0, 1.1, 0.9, 1.1, 0.9, 33, 0, 0, 0, 0
    1, 0
    19,     20, 0, 1, 1, 1, 1, 0, 0, 2, '            ', 1, 1, 1, 0, 1, 0, 1, 0, 1, '            '
0.0007, 0.0138, 100
 1.06, 0,     0,     900,     900,    2500, 0, 0, 1.1, 0.9, 1.1, 0.9, 33, 0, 0, 0, 0
    1, 0
    19,     33, 0, 1, 1, 1, 1, 0, 0, 2, '            ', 1, 1, 1, 0, 1, 0, 1, 0, 1, '            '
0.0007, 0.0142, 100
 1.07, 0,     0,     900,     900,    2500, 0, 0, 1.1, 0.9, 1.1, 0.9, 33, 0, 0, 0, 0
    1, 0
    20,     34, 0, 1, 1, 1, 1, 0, 0, 2, '            ', 1, 1, 1, 0, 1, 0, 1, 0, 1, '            '
0.0009, 0.018, 100
1.009, 0,     0,     900,     900,    2500, 0, 0, 1.1, 0.9, 1.1, 0.9, 33, 0, 0, 0, 0
    1, 0
    22,     35, 0, 1, 1, 1, 1, 0, 0, 2, '            ', 1, 1, 1, 0, 1, 0, 1, 0, 1, '            '
0, 0.0143, 100
1.025, 0,     0,     900,     900,    2500, 0, 0, 1.1, 0.9, 1.1, 0.9, 33, 0, 0, 0, 0
    1, 0
    23,     36, 0, 1, 1, 1, 1, 0, 0, 2, '            ', 1, 1, 1, 0, 1, 0, 1, 0, 1, '            '
0.0005, 0.0272, 100
    1, 0,     0,     900,     900,    2500, 0, 0, 1.1, 0.9, 1.1, 0.9, 33, 0, 0, 0, 0
    1, 0
    25,     37, 0, 1, 1, 1, 1, 0, 0, 2, '            ', 1, 1, 1, 0, 1, 0, 1, 0, 1, '            '
0.0006, 0.0232, 100
1.025, 0,     0,     900,     900,    2500, 0, 0, 1.1, 0.9, 1.1, 0.9, 33, 0, 0, 0, 0
    1, 0
    29,     38, 0, 1, 1, 1, 1, 0, 0, 2, '            ', 1, 1, 1, 0, 1, 0, 1, 0, 1, '            '
0.0008, 0.0156, 100
1.025, 0,     0,    1200,    1200,    2500, 0, 0, 1.1, 0.9, 1.1, 0.9, 33, 0, 0, 0, 0
    1, 0
0 / END OF TRANSFORMER DATA, BEGIN AREA DATA
0 / END OF AREA DATA, BEGIN TWO-TERMINAL DC DATA
0 / END OF TWO-TERMINAL DC DATA, BEGIN VOLTAGE SOURCE CONVERTER DATA
0 / END OF VOLTAGE SOURCE CONVERTER DATA, BEGIN IMPEDANCE CORRECTION DATA
0 / END OF IMPEDANCE CORRECTION DATA, BEGIN MULTI-TERMINAL DC DATA
0 / END OF MULTI-TERMINAL DC DATA, BEGIN MULTI-SECTION LINE DATA
0 / END OF MULTI-SECTION LINE DATA, BEGIN ZONE DATA
0 / END OF ZONE DATA, BEGIN INTER-AREA TRANSFER DATA
0 / END OF INTER-AREA TRANSFER DATA, BEGIN OWNER DATA
0 / END OF OWNER DATA, BEGIN FACTS CONTROL DEVICE DATA
0 / END OF FACTS CONTROL DEVICE DATA, BEGIN SWITCHED SHUNT DATA
0 / END OF SWITCHED SHUNT DATA, BEGIN GNE DEVICE DATA
0 / END OF GNE DEVICE DATA, BEGIN INDUCTION MACHINE DATA
0 / END OF INDUCTION MACHINE DATA
Q
